conformer_0
     RDKit          3D

  8  7  0  0  0  0  0  0  0  0999 V2000
   -1.1413    0.1258    0.3489 N   0  0  0  0  0  0  0  0  0  0  0  0
   -0.0573   -0.4232   -0.2482 C   0  0  0  0  0  0  0  0  0  0  0  0
    1.1845   -0.0738    0.1628 N   0  0  0  0  0  0  0  0  0  0  0  0
   -0.1973   -1.1905   -1.1750 O   0  0  0  0  0  0  0  0  0  0  0  0
   -0.9712    0.9797    0.8792 H   0  0  0  0  0  0  0  0  0  0  0  0
   -2.0095    0.0544   -0.1805 H   0  0  0  0  0  0  0  0  0  0  0  0
    1.2475    0.7894    0.7014 H   0  0  0  0  0  0  0  0  0  0  0  0
    1.9336   -0.2846   -0.4958 H   0  0  0  0  0  0  0  0  0  0  0  0
  1  2  1  0
  2  3  1  0
  2  4  2  0
  1  5  1  0
  1  6  1  0
  3  7  1  0
  3  8  1  0
M  END
$$$$
conformer_1
     RDKit          3D

  8  7  0  0  0  0  0  0  0  0999 V2000
   -1.1404   -0.0102   -0.3363 N   0  0  0  0  0  0  0  0  0  0  0  0
    0.0024    0.3748    0.2788 C   0  0  0  0  0  0  0  0  0  0  0  0
    1.1416   -0.3288    0.0797 N   0  0  0  0  0  0  0  0  0  0  0  0
    0.0056    1.3448    1.0044 O   0  0  0  0  0  0  0  0  0  0  0  0
   -1.9961    0.3777    0.0594 H   0  0  0  0  0  0  0  0  0  0  0  0
   -1.1612   -0.9724   -0.6723 H   0  0  0  0  0  0  0  0  0  0  0  0
    2.0002    0.1568    0.3368 H   0  0  0  0  0  0  0  0  0  0  0  0
    1.1571   -0.9233   -0.7483 H   0  0  0  0  0  0  0  0  0  0  0  0
  1  2  1  0
  2  3  1  0
  2  4  2  0
  1  5  1  0
  1  6  1  0
  3  7  1  0
  3  8  1  0
M  END
$$$$
conformer_2
     RDKit          3D

  8  7  0  0  0  0  0  0  0  0999 V2000
   -1.1602   -0.0440    0.2971 N   0  0  0  0  0  0  0  0  0  0  0  0
   -0.0153    0.4258   -0.2519 C   0  0  0  0  0  0  0  0  0  0  0  0
    1.1796   -0.0081    0.2135 N   0  0  0  0  0  0  0  0  0  0  0  0
   -0.0605    1.1976   -1.1844 O   0  0  0  0  0  0  0  0  0  0  0  0
   -1.0738   -0.9059    0.8347 H   0  0  0  0  0  0  0  0  0  0  0  0
   -1.9974    0.0863   -0.2698 H   0  0  0  0  0  0  0  0  0  0  0  0
    1.9699    0.1472   -0.4115 H   0  0  0  0  0  0  0  0  0  0  0  0
    1.1583   -0.8715    0.7551 H   0  0  0  0  0  0  0  0  0  0  0  0
  1  2  1  0
  2  3  1  0
  2  4  2  0
  1  5  1  0
  1  6  1  0
  3  7  1  0
  3  8  1  0
M  END
$$$$
conformer_3
     RDKit          3D

  8  7  0  0  0  0  0  0  0  0999 V2000
   -1.1606   -0.1874   -0.1845 N   0  0  0  0  0  0  0  0  0  0  0  0
   -0.0057    0.4536    0.1115 C   0  0  0  0  0  0  0  0  0  0  0  0
    1.1655   -0.2245    0.0804 N   0  0  0  0  0  0  0  0  0  0  0  0
   -0.0201    1.6293    0.4030 O   0  0  0  0  0  0  0  0  0  0  0  0
   -2.0093    0.2892    0.1184 H   0  0  0  0  0  0  0  0  0  0  0  0
   -1.1331   -1.2044   -0.1190 H   0  0  0  0  0  0  0  0  0  0  0  0
    2.0012    0.3581    0.0403 H   0  0  0  0  0  0  0  0  0  0  0  0
    1.1614   -1.0933   -0.4530 H   0  0  0  0  0  0  0  0  0  0  0  0
  1  2  1  0
  2  3  1  0
  2  4  2  0
  1  5  1  0
  1  6  1  0
  3  7  1  0
  3  8  1  0
M  END
$$$$
conformer_4
     RDKit          3D

  8  7  0  0  0  0  0  0  0  0999 V2000
    1.1431   -0.3311    0.0330 N   0  0  0  0  0  0  0  0  0  0  0  0
    0.0487    0.4642   -0.0132 C   0  0  0  0  0  0  0  0  0  0  0  0
   -1.1854   -0.0919   -0.0222 N   0  0  0  0  0  0  0  0  0  0  0  0
    0.1731    1.6687   -0.0464 O   0  0  0  0  0  0  0  0  0  0  0  0
    0.9990   -1.3009   -0.2462 H   0  0  0  0  0  0  0  0  0  0  0  0
    2.0168    0.1200   -0.2361 H   0  0  0  0  0  0  0  0  0  0  0  0
   -1.2410   -1.0541    0.3098 H   0  0  0  0  0  0  0  0  0  0  0  0
   -1.9468    0.5422    0.2176 H   0  0  0  0  0  0  0  0  0  0  0  0
  1  2  1  0
  2  3  1  0
  2  4  2  0
  1  5  1  0
  1  6  1  0
  3  7  1  0
  3  8  1  0
M  END
$$$$
conformer_5
     RDKit          3D

  8  7  0  0  0  0  0  0  0  0999 V2000
   -1.1681    0.2736   -0.0293 N   0  0  0  0  0  0  0  0  0  0  0  0
   -0.0239   -0.3358    0.3609 C   0  0  0  0  0  0  0  0  0  0  0  0
    1.1705    0.2393    0.0859 N   0  0  0  0  0  0  0  0  0  0  0  0
   -0.0670   -1.4121    0.9151 O   0  0  0  0  0  0  0  0  0  0  0  0
   -1.0679    0.9842   -0.7534 H   0  0  0  0  0  0  0  0  0  0  0  0
   -1.9909   -0.3276   -0.0572 H   0  0  0  0  0  0  0  0  0  0  0  0
    1.9741   -0.3857    0.1382 H   0  0  0  0  0  0  0  0  0  0  0  0
    1.1628    0.9514   -0.6436 H   0  0  0  0  0  0  0  0  0  0  0  0
  1  2  1  0
  2  3  1  0
  2  4  2  0
  1  5  1  0
  1  6  1  0
  3  7  1  0
  3  8  1  0
M  END
$$$$
conformer_6
     RDKit          3D

  8  7  0  0  0  0  0  0  0  0999 V2000
   -1.1418   -0.3065   -0.1327 N   0  0  0  0  0  0  0  0  0  0  0  0
   -0.0401    0.4673    0.0073 C   0  0  0  0  0  0  0  0  0  0  0  0
    1.1771   -0.1130    0.1255 N   0  0  0  0  0  0  0  0  0  0  0  0
   -0.1430    1.6742    0.0265 O   0  0  0  0  0  0  0  0  0  0  0  0
   -0.9758   -1.2626   -0.4450 H   0  0  0  0  0  0  0  0  0  0  0  0
   -1.9670    0.1764   -0.4866 H   0  0  0  0  0  0  0  0  0  0  0  0
    1.9099    0.4910    0.4963 H   0  0  0  0  0  0  0  0  0  0  0  0
    1.1763   -1.0929    0.4066 H   0  0  0  0  0  0  0  0  0  0  0  0
  1  2  1  0
  2  3  1  0
  2  4  2  0
  1  5  1  0
  1  6  1  0
  3  7  1  0
  3  8  1  0
M  END
$$$$
conformer_7
     RDKit          3D

  8  7  0  0  0  0  0  0  0  0999 V2000
    1.1480   -0.1990    0.2467 N   0  0  0  0  0  0  0  0  0  0  0  0
    0.0083    0.4650   -0.0578 C   0  0  0  0  0  0  0  0  0  0  0  0
   -1.1527   -0.2188   -0.1877 N   0  0  0  0  0  0  0  0  0  0  0  0
    0.0273    1.6661   -0.2133 O   0  0  0  0  0  0  0  0  0  0  0  0
    2.0095    0.3135    0.0610 H   0  0  0  0  0  0  0  0  0  0  0  0
    1.1390   -1.2022    0.0660 H   0  0  0  0  0  0  0  0  0  0  0  0
   -1.9970    0.3506   -0.1429 H   0  0  0  0  0  0  0  0  0  0  0  0
   -1.1745   -1.1425    0.2432 H   0  0  0  0  0  0  0  0  0  0  0  0
  1  2  1  0
  2  3  1  0
  2  4  2  0
  1  5  1  0
  1  6  1  0
  3  7  1  0
  3  8  1  0
M  END
$$$$
conformer_8
     RDKit          3D

  8  7  0  0  0  0  0  0  0  0999 V2000
    1.1071   -0.4210   -0.1832 N   0  0  0  0  0  0  0  0  0  0  0  0
    0.0352    0.3990   -0.2901 C   0  0  0  0  0  0  0  0  0  0  0  0
   -1.1965   -0.0606    0.0333 N   0  0  0  0  0  0  0  0  0  0  0  0
    0.1835    1.5516   -0.6318 O   0  0  0  0  0  0  0  0  0  0  0  0
    2.0110    0.0496   -0.1564 H   0  0  0  0  0  0  0  0  0  0  0  0
    0.9781   -1.2464    0.4009 H   0  0  0  0  0  0  0  0  0  0  0  0
   -1.2196   -0.9029    0.6070 H   0  0  0  0  0  0  0  0  0  0  0  0
   -1.8947    0.6607    0.2112 H   0  0  0  0  0  0  0  0  0  0  0  0
  1  2  1  0
  2  3  1  0
  2  4  2  0
  1  5  1  0
  1  6  1  0
  3  7  1  0
  3  8  1  0
M  END
$$$$
conformer_9
     RDKit          3D

  8  7  0  0  0  0  0  0  0  0999 V2000
    1.1175    0.3892   -0.1487 N   0  0  0  0  0  0  0  0  0  0  0  0
    0.0234   -0.1385    0.4488 C   0  0  0  0  0  0  0  0  0  0  0  0
   -1.1292   -0.2621   -0.2502 N   0  0  0  0  0  0  0  0  0  0  0  0
    0.0757   -0.4986    1.6042 O   0  0  0  0  0  0  0  0  0  0  0  0
    1.1115    0.3859   -1.1681 H   0  0  0  0  0  0  0  0  0  0  0  0
    2.0006    0.2039    0.3257 H   0  0  0  0  0  0  0  0  0  0  0  0
   -1.2072    0.3192   -1.0840 H   0  0  0  0  0  0  0  0  0  0  0  0
   -1.9653   -0.4016    0.3162 H   0  0  0  0  0  0  0  0  0  0  0  0
  1  2  1  0
  2  3  1  0
  2  4  2  0
  1  5  1  0
  1  6  1  0
  3  7  1  0
  3  8  1  0
M  END
$$$$
