conformer_35
     RDKit          3D

 10  9  0  0  0  0  0  0  0  0999 V2000
    1.3756   -0.1499    0.2501 N   0  0  0  0  0  0  0  0  0  0  0  0
    0.4289    0.0827   -0.7095 C   0  0  0  0  0  0  0  0  0  0  0  0
    0.7227    0.1515   -1.8967 O   0  0  0  0  0  0  0  0  0  0  0  0
   -0.9934    0.2464   -0.1730 C   0  0  0  0  0  0  0  0  0  0  0  0
   -1.1201   -0.1450    1.1900 O   0  0  0  0  0  0  0  0  0  0  0  0
    2.3420   -0.1224   -0.0474 H   0  0  0  0  0  0  0  0  0  0  0  0
    1.1606    0.1037    1.2083 H   0  0  0  0  0  0  0  0  0  0  0  0
   -1.6758   -0.3603   -0.7754 H   0  0  0  0  0  0  0  0  0  0  0  0
   -1.2737    1.3002   -0.2550 H   0  0  0  0  0  0  0  0  0  0  0  0
   -0.9668   -1.1070    1.2086 H   0  0  0  0  0  0  0  0  0  0  0  0
  1  2  1  0
  2  3  2  0
  2  4  1  0
  4  5  1  0
  1  6  1  0
  1  7  1  0
  4  8  1  0
  4  9  1  0
  5 10  1  0
M  END
$$$$
conformer_42
     RDKit          3D

 10  9  0  0  0  0  0  0  0  0999 V2000
    1.5949    0.2015   -0.1068 N   0  0  0  0  0  0  0  0  0  0  0  0
    0.2795    0.4779    0.1231 C   0  0  0  0  0  0  0  0  0  0  0  0
   -0.0663    1.4915    0.7237 O   0  0  0  0  0  0  0  0  0  0  0  0
   -0.7221   -0.5306   -0.4341 C   0  0  0  0  0  0  0  0  0  0  0  0
   -2.0063   -0.3768    0.1496 O   0  0  0  0  0  0  0  0  0  0  0  0
    2.2690    0.8180    0.3305 H   0  0  0  0  0  0  0  0  0  0  0  0
    1.9084   -0.7212   -0.3757 H   0  0  0  0  0  0  0  0  0  0  0  0
   -0.3743   -1.5487   -0.2384 H   0  0  0  0  0  0  0  0  0  0  0  0
   -0.8081   -0.3782   -1.5139 H   0  0  0  0  0  0  0  0  0  0  0  0
   -2.0747    0.5667    0.4002 H   0  0  0  0  0  0  0  0  0  0  0  0
  1  2  1  0
  2  3  2  0
  2  4  1  0
  4  5  1  0
  1  6  1  0
  1  7  1  0
  4  8  1  0
  4  9  1  0
  5 10  1  0
M  END
$$$$
conformer_77
     RDKit          3D

 10  9  0  0  0  0  0  0  0  0999 V2000
    1.5127   -0.2371   -0.4899 N   0  0  0  0  0  0  0  0  0  0  0  0
    0.4279    0.4126    0.0205 C   0  0  0  0  0  0  0  0  0  0  0  0
    0.4792    1.6001    0.3285 O   0  0  0  0  0  0  0  0  0  0  0  0
   -0.8301   -0.4323    0.2067 C   0  0  0  0  0  0  0  0  0  0  0  0
   -1.9854    0.3726    0.3821 O   0  0  0  0  0  0  0  0  0  0  0  0
    1.4291   -1.1248   -0.9664 H   0  0  0  0  0  0  0  0  0  0  0  0
    2.3244    0.3323   -0.6961 H   0  0  0  0  0  0  0  0  0  0  0  0
   -0.7023   -1.0591    1.0940 H   0  0  0  0  0  0  0  0  0  0  0  0
   -0.9839   -1.0699   -0.6683 H   0  0  0  0  0  0  0  0  0  0  0  0
   -1.6716    1.2055    0.7889 H   0  0  0  0  0  0  0  0  0  0  0  0
  1  2  1  0
  2  3  2  0
  2  4  1  0
  4  5  1  0
  1  6  1  0
  1  7  1  0
  4  8  1  0
  4  9  1  0
  5 10  1  0
M  END
$$$$
conformer_93
     RDKit          3D

 10  9  0  0  0  0  0  0  0  0999 V2000
    1.4851    0.2857    0.2511 N   0  0  0  0  0  0  0  0  0  0  0  0
    0.5885   -0.6000   -0.2745 C   0  0  0  0  0  0  0  0  0  0  0  0
    0.9474   -1.5799   -0.9173 O   0  0  0  0  0  0  0  0  0  0  0  0
   -0.8743   -0.2768    0.0314 C   0  0  0  0  0  0  0  0  0  0  0  0
   -1.0451    1.0223    0.5919 O   0  0  0  0  0  0  0  0  0  0  0  0
    2.4589    0.1950    0.0008 H   0  0  0  0  0  0  0  0  0  0  0  0
    1.1310    1.1707    0.5992 H   0  0  0  0  0  0  0  0  0  0  0  0
   -1.4410   -0.3265   -0.9029 H   0  0  0  0  0  0  0  0  0  0  0  0
   -1.2512   -1.0186    0.7413 H   0  0  0  0  0  0  0  0  0  0  0  0
   -1.9994    1.1282    0.7504 H   0  0  0  0  0  0  0  0  0  0  0  0
  1  2  1  0
  2  3  2  0
  2  4  1  0
  4  5  1  0
  1  6  1  0
  1  7  1  0
  4  8  1  0
  4  9  1  0
  5 10  1  0
M  END
$$$$
conformer_97
     RDKit          3D

 10  9  0  0  0  0  0  0  0  0999 V2000
   -1.2683    0.5887    0.0736 N   0  0  0  0  0  0  0  0  0  0  0  0
   -0.5113   -0.5226    0.3245 C   0  0  0  0  0  0  0  0  0  0  0  0
   -0.9408   -1.4530    0.9956 O   0  0  0  0  0  0  0  0  0  0  0  0
    0.8849   -0.4947   -0.2981 C   0  0  0  0  0  0  0  0  0  0  0  0
    1.2464    0.7912   -0.7908 O   0  0  0  0  0  0  0  0  0  0  0  0
   -2.2416    0.5479    0.3462 H   0  0  0  0  0  0  0  0  0  0  0  0
   -1.0142    1.1752   -0.7138 H   0  0  0  0  0  0  0  0  0  0  0  0
    1.6188   -0.7996    0.4536 H   0  0  0  0  0  0  0  0  0  0  0  0
    0.9042   -1.2002   -1.1333 H   0  0  0  0  0  0  0  0  0  0  0  0
    1.3218    1.3672   -0.0085 H   0  0  0  0  0  0  0  0  0  0  0  0
  1  2  1  0
  2  3  2  0
  2  4  1  0
  4  5  1  0
  1  6  1  0
  1  7  1  0
  4  8  1  0
  4  9  1  0
  5 10  1  0
M  END
$$$$
