conformer_145
     RDKit          3D

 10  9  0  0  0  0  0  0  0  0999 V2000
    1.5871   -0.1995   -0.0962 N   0  0  0  0  0  0  0  0  0  0  0  0
    0.3768    0.4288   -0.0904 C   0  0  0  0  0  0  0  0  0  0  0  0
    0.2794    1.6286    0.1518 O   0  0  0  0  0  0  0  0  0  0  0  0
   -0.8357   -0.4546   -0.3742 C   0  0  0  0  0  0  0  0  0  0  0  0
   -1.9806    0.3129   -0.7113 O   0  0  0  0  0  0  0  0  0  0  0  0
    2.4031    0.3914    0.0067 H   0  0  0  0  0  0  0  0  0  0  0  0
    1.7161   -1.1077   -0.5211 H   0  0  0  0  0  0  0  0  0  0  0  0
   -0.6177   -1.1315   -1.2049 H   0  0  0  0  0  0  0  0  0  0  0  0
   -1.0588   -1.0407    0.5220 H   0  0  0  0  0  0  0  0  0  0  0  0
   -1.8697    1.1722   -0.2565 H   0  0  0  0  0  0  0  0  0  0  0  0
  1  2  1  0
  2  3  2  0
  2  4  1  0
  4  5  1  0
  1  6  1  0
  1  7  1  0
  4  8  1  0
  4  9  1  0
  5 10  1  0
M  END
$$$$
