conformer_35
     RDKit          3D

 10  9  0  0  0  0  0  0  0  0999 V2000
    1.3756   -0.1499    0.2501 N   0  0  0  0  0  0  0  0  0  0  0  0
    0.4289    0.0827   -0.7095 C   0  0  0  0  0  0  0  0  0  0  0  0
    0.7227    0.1515   -1.8967 O   0  0  0  0  0  0  0  0  0  0  0  0
   -0.9934    0.2464   -0.1730 C   0  0  0  0  0  0  0  0  0  0  0  0
   -1.1201   -0.1450    1.1900 O   0  0  0  0  0  0  0  0  0  0  0  0
    2.3420   -0.1224   -0.0474 H   0  0  0  0  0  0  0  0  0  0  0  0
    1.1606    0.1037    1.2083 H   0  0  0  0  0  0  0  0  0  0  0  0
   -1.6758   -0.3603   -0.7754 H   0  0  0  0  0  0  0  0  0  0  0  0
   -1.2737    1.3002   -0.2550 H   0  0  0  0  0  0  0  0  0  0  0  0
   -0.9668   -1.1070    1.2086 H   0  0  0  0  0  0  0  0  0  0  0  0
  1  2  1  0
  2  3  2  0
  2  4  1  0
  4  5  1  0
  1  6  1  0
  1  7  1  0
  4  8  1  0
  4  9  1  0
  5 10  1  0
M  END
$$$$
