conformer_42
     RDKit          3D

  9  8  0  0  0  0  0  0  0  0999 V2000
    1.5949    0.2015   -0.1068 N   0  0  0  0  0  0  0  0  0  0  0  0
    0.2795    0.4779    0.1231 C   0  0  0  0  0  0  0  0  0  0  0  0
   -0.0663    1.4915    0.7237 O   0  0  0  0  0  0  0  0  0  0  0  0
   -0.7221   -0.5306   -0.4341 C   0  0  0  0  0  0  0  0  0  0  0  0
   -2.0063   -0.3768    0.1496 O   0  0  0  0  0  0  0  0  0  0  0  0
    2.2690    0.8180    0.3305 H   0  0  0  0  0  0  0  0  0  0  0  0
    1.9084   -0.7212   -0.3757 H   0  0  0  0  0  0  0  0  0  0  0  0
   -0.3743   -1.5487   -0.2384 H   0  0  0  0  0  0  0  0  0  0  0  0
   -0.8081   -0.3782   -1.5139 H   0  0  0  0  0  0  0  0  0  0  0  0
  1  2  1  0
  2  3  2  0
  2  4  1  0
  4  5  1  0
  1  6  1  0
  1  7  1  0
  4  8  1  0
  4  9  1  0
M  CHG  1   5  -1
M  END
$$$$
